Command line:
./run_gem5_arm_spec06_benchmark.sh gcc ./stats/gcc
================= Hardcoded directories ==================
GEM5_DIR:                                     /home/cssys/my_projects/gem5
SPEC_DIR:                                     /ext_home/program_files/spec
==================== Script inputs =======================
BENCHMARK:                                    gcc
OUTPUT_DIR:                                   ./stats/gcc
==========================================================

Changing to SPEC benchmark runtime directory: /ext_home/program_files/spec/benchspec/CPU2006/403.gcc/exe
tee: ./stats/gcc/runscript.log: No such file or directory

tee: ./stats/gcc/runscript.log: No such file or directory

tee: ./stats/gcc/runscript.log: No such file or directory
--------- Here goes nothing! Starting gem5! ------------
tee: ./stats/gcc/runscript.log: No such file or directory

tee: ./stats/gcc/runscript.log: No such file or directory

tee: ./stats/gcc/runscript.log: No such file or directory
warn: gem5 Simulator System.  http://gem5.org
gem5 is copyrighted software; use the --copyright option for details.

gem5 compiled Jun 11 2016 19:50:26
gem5 started Jun 12 2016 20:26:27
gem5 executing on cssys-Lenovo-Product
command line: /home/cssys/my_projects/gem5/build/ARM/gem5.opt --outdir=./stats/gcc /home/cssys/my_projects/gem5/configs/example/spec06_config.py --benchmark=gcc --benchmark_stdout=./stats/gcc/gcc.out --benchmark_stderr=./stats/gcc/gcc.err --mem-size=4GB --cpu-type=TimingSimpleCPU

Selected SPEC_CPU2006 benchmark
--> gcc
Process stdout file: ./stats/gcc/gcc.out
Process stderr file: ./stats/gcc/gcc.err
['gcc_base.gcc-arm-A7-little-endian', '/ext_home/program_files/spec/benchspec/CPU2006/403.gcc/data/ref/input/expr.in', '-o', 'expr.s']
Global frequency set at 1000000000000 ticks per second
DRAM device capacity (8192 Mbytes) does not match the address range assigned (4096 Mbytes)
0: system.remote_gdb.listener: listening for remote gdb #0 on port 7000
**** REAL SIMULATION ****
info: Entering event queue @ 0.  Starting simulation...
info: Increasing stack size by one page.
warn: ignoring syscall rt_sigaction(8, ...)
      (further warnings will be suppressed)
info: Increasing stack size by one page.
info: Increasing stack size by one page.
info: Increasing stack size by one page.
info: Increasing stack size by one page.
info: Increasing stack size by one page.
info: Increasing stack size by one page.
info: Increasing stack size by one page.
info: Increasing stack size by one page.
info: Increasing stack size by one page.
info: Increasing stack size by one page.
info: Increasing stack size by one page.
info: Increasing stack size by one page.
info: Increasing stack size by one page.
info: Increasing stack size by one page.
info: Increasing stack size by one page.
info: Increasing stack size by one page.
info: Increasing stack size by one page.
info: Increasing stack size by one page.
